! UHF DLPNO-CCSD 6-31G* aug-cc-pV6Z/C ExtremeSCF NoAutoStart

%maxcore 4000

%mdci
      UseQROs      true
      CIType       CCSD
      MaxIter      35
      Randomize    false
      end

* xyz 0 2
    O          0.000000000      0.303416000     -1.093713000
    O          0.000000000     -0.527361000     -0.160970000
    O          0.000000000      0.156309000      1.199256000
    H          0.000000000      1.073618000      0.879802000
*
