! UHF DLPNO-CCSD 6-31G* aug-cc-pV6Z/C ExtremeSCF NoAutoStart

%maxcore 4000

%mdci
      UseQROs      true
      CIType       CCSD
      MaxIter      35
      Randomize    false
      end

* xyz 0 2
    C          0.111474000     -0.490703000      0.000000000
    H         -0.413286000     -0.887691000      0.878215000
    H          1.132499000     -0.867240000      0.000000000
    H         -0.413286000     -0.887691000     -0.878215000
    N          0.107931000      0.953335000      0.000000000
    H         -0.875333000      1.238585000      0.000000000
*
