! UHF DLPNO-CCSD 6-31G* aug-cc-pV6Z/C ExtremeSCF NoAutoStart

%maxcore 4000

%mdci
      UseQROs      true
      CIType       CCSD
      MaxIter      35
      Randomize    false
      end

* xyz 0 2
    C          0.000000000      0.000000000     -0.507470000
    H          0.000000000      0.936731000     -1.073881000
    H          0.000000000     -0.936731000     -1.073881000
    N          0.000000000      0.000000000      0.741890000
*
