! UHF DLPNO-CCSD 6-31G* aug-cc-pV6Z/C ExtremeSCF NoAutoStart

%maxcore 4000

%mdci
      UseQROs      true
      CIType       CCSD
      MaxIter      35
      Randomize    false
      end

* xyz 0 2
    O          0.000000000      0.000000000      0.000000000
    C          1.178487000      0.000000000      0.000000000
    H          1.811871000      0.923279000      0.000000000
*
