! UHF DLPNO-CCSD 6-31G* aug-cc-pV6Z/C ExtremeSCF NoAutoStart

%maxcore 4000

%mdci
      UseQROs      true
      CIType       CCSD
      MaxIter      35
      Randomize    false
      end

* xyz 0 2
    N          0.000000000      0.000000000      0.000000000
    O          1.195657000      0.000000000      0.000000000
    O         -0.832880000      0.857850000      0.000000000
*
