! UHF DLPNO-CCSD 6-31G* aug-cc-pV6Z/C ExtremeSCF NoAutoStart

%maxcore 4000

%mdci
      UseQROs      true
      CIType       CCSD
      MaxIter      35
      Randomize    false
      end

* xyz 0 3
    O          0.000000000      0.000000000      0.000000000
    O          1.207800000      0.000000000      0.000000000
*
